[TITLE]

[JUNCTIONS]
 JUNCTION-0                          376.0700
 JUNCTION-1                          192.0000
 JUNCTION-2                          363.1400
 JUNCTION-3                          428.0700
 JUNCTION-4                          477.8100
 JUNCTION-5                          494.2300
 JUNCTION-6                          505.0000
 JUNCTION-7                          535.2300
 JUNCTION-8                          493.4200
 JUNCTION-9                          488.2900
 JUNCTION-10                         333.6200
 JUNCTION-11                         344.1000
 JUNCTION-12                         379.5000
 JUNCTION-13                         325.9500
 JUNCTION-14                         416.8500
 JUNCTION-15                         423.4900
 JUNCTION-16                         383.0000
 JUNCTION-17                         385.0600
 JUNCTION-18                         478.1500
 JUNCTION-19                         558.9300
 JUNCTION-20                         617.7300
 JUNCTION-21                         652.4200
 JUNCTION-22                         625.9600
 JUNCTION-23                         604.3400
 JUNCTION-24                         636.6100
 JUNCTION-25                         653.9300
 JUNCTION-26                         683.4300
 JUNCTION-27                         690.6500
 JUNCTION-28                         701.6900
 JUNCTION-29                         846.2800
 JUNCTION-30                         636.0000
 JUNCTION-31                         600.4300
 JUNCTION-32                         625.8500
 JUNCTION-33                         622.7800
 JUNCTION-34                         200.0000
 JUNCTION-35                         651.9700
 JUNCTION-36                         634.1100
 JUNCTION-37                         677.0500
 JUNCTION-38                         646.5100
 JUNCTION-39                         703.1900
 JUNCTION-40                         741.6300
 JUNCTION-41                         700.2200
 JUNCTION-42                         728.0500
 JUNCTION-43                         653.0900
 JUNCTION-44                         678.5000
 JUNCTION-45                         747.3200
 JUNCTION-46                         820.2400
 JUNCTION-47                         640.4700
 JUNCTION-48                         637.4500
 JUNCTION-49                         623.9000
 JUNCTION-50                         611.0800
 JUNCTION-51                         623.6800
 JUNCTION-52                         613.2700
 JUNCTION-53                         607.6300
 JUNCTION-54                         602.1100
 JUNCTION-55                         603.3400
 JUNCTION-56                         606.9400
 JUNCTION-57                         617.9700
 JUNCTION-58                         610.2100
 JUNCTION-59                         620.9500
 JUNCTION-60                         623.9900
 JUNCTION-61                         625.3800
 JUNCTION-62                         625.4000
 JUNCTION-63                         623.9500
 JUNCTION-64                         623.1300
 JUNCTION-65                         619.3700
 JUNCTION-66                         619.7200
 JUNCTION-67                         624.5000
 JUNCTION-68                         617.0800
 JUNCTION-69                         626.0000
 JUNCTION-70                         619.1100
 JUNCTION-71                         632.1800
 JUNCTION-72                         622.3500
 JUNCTION-73                         620.3700
 JUNCTION-74                         622.3400
 JUNCTION-75                         629.1600
 JUNCTION-76                         622.5500
 JUNCTION-77                         624.6400
 JUNCTION-78                         618.0200
 JUNCTION-79                         617.8900
 JUNCTION-80                         616.8900
 JUNCTION-81                         623.5800
 JUNCTION-82                         618.7600
 JUNCTION-83                         617.7100
 JUNCTION-84                         619.9300
 JUNCTION-85                         620.2500
 JUNCTION-86                         623.4800
 JUNCTION-87                         622.2600
 JUNCTION-88                         621.6900
 JUNCTION-89                         626.8100
 JUNCTION-90                         644.0900
 JUNCTION-91                         637.4400
 JUNCTION-92                         628.2400
 JUNCTION-93                         643.7400
 JUNCTION-94                         633.4800
 JUNCTION-95                         630.8600
 JUNCTION-96                         629.1400
 JUNCTION-97                         628.9900
 JUNCTION-98                         643.0500
 JUNCTION-99                         641.8900
 JUNCTION-100                        637.9000
 JUNCTION-101                        645.0900
 JUNCTION-102                       1094.0700
 JUNCTION-103                       1031.7300
 JUNCTION-104                        860.6400
 JUNCTION-105                          0.0000
 JUNCTION-106                          0.0000
 JUNCTION-109                          0.0000
 JUNCTION-110                          0.0000
 JUNCTION-111                        418.0000
 JUNCTION-112                        418.0000
 JUNCTION-113                        359.0000
 JUNCTION-114                        359.0000
 JUNCTION-115                        533.0000
 JUNCTION-116                        533.0000
 JUNCTION-117                        404.0000
 JUNCTION-118                        404.0000
 JUNCTION-119                        849.0000
 JUNCTION-120                        849.0000
 JUNCTION-121                        957.0000
 JUNCTION-122                        957.0000
 JUNCTION-123                        758.0000
 JUNCTION-124                        758.0000
 JUNCTION-125                        434.0000
 JUNCTION-126                        434.0000
 JUNCTION-128                          0.0000

[RESERVOIRS]
 RESERVOIR-129                       425.0000 

[TANKS]
 TANK-130                            843.9000      15.1590       0.0000      32.1000     186.0000       0.0000 
 TANK-131                           1137.1000      17.9450       0.0000      41.9000     106.0000       0.0000 

[PIPES]
 LINK-0                          JUNCTION-118                    JUNCTION-126                       7401.0000      20.4534     138.0000       0.0000 
 LINK-1                          JUNCTION-17                     JUNCTION-0                          359.0000       7.9999     139.0000       0.0000 
 LINK-2                          JUNCTION-0                      JUNCTION-2                          324.0000       7.9999     139.0000       0.0000 
 LINK-3                          JUNCTION-3                      JUNCTION-4                          697.0000       7.9998     139.0000       0.0000 
 LINK-6                          JUNCTION-5                      JUNCTION-4                          574.0000       7.9998     139.0000       0.0000 
 LINK-7                          JUNCTION-5                      JUNCTION-6                          238.0000       7.9999     139.0000       0.0000 
 LINK-8                          JUNCTION-6                      JUNCTION-7                          502.0000       8.0000     139.0000       0.0000 
 LINK-9                          JUNCTION-8                      JUNCTION-6                          396.0000       7.9999     139.0000       0.0000 
 LINK-10                         JUNCTION-9                      JUNCTION-8                          377.0000       7.9999     139.0000       0.0000 
 LINK-11                         JUNCTION-18                     JUNCTION-9                          308.0000       7.9999     139.0000       0.0000 
 LINK-12                         JUNCTION-9                      JUNCTION-8                          837.0000       7.9998     139.0000       0.0000 
 LINK-13                         JUNCTION-2                      JUNCTION-113                         56.0000       8.0000     138.0000       0.0000 
 LINK-14                         JUNCTION-114                    JUNCTION-10                         599.0000       7.9999     138.0000       0.0000 
 LINK-15                         JUNCTION-1                      JUNCTION-109                        125.0000      16.0000     138.0000       0.0000 
 LINK-16                         JUNCTION-10                     JUNCTION-11                         409.0000       7.9998     138.0000       0.0000 
 LINK-17                         JUNCTION-110                    JUNCTION-34                         124.0000      12.0000     138.0000       0.0000 
 LINK-18                         JUNCTION-128                    JUNCTION-1                          320.0000      30.0000     138.0000       0.0000 
 LINK-19                         RESERVOIR-129                   JUNCTION-128                         51.0000      30.0000     138.0000       0.0000 
 LINK-20                         JUNCTION-12                     JUNCTION-13                         597.0000       8.0000     140.0000       0.0000 
 LINK-21                         JUNCTION-12                     JUNCTION-11                         671.0000       7.9998     138.0000       0.0000 
 LINK-22                         JUNCTION-14                     JUNCTION-12                         332.0000       7.9999     139.0000       0.0000 
 LINK-23                         JUNCTION-5                      JUNCTION-15                        2089.0000       7.9999     139.0000       0.0000 
 LINK-24                         JUNCTION-15                     JUNCTION-3                           50.0000       8.0000     139.0000       0.0000 
 LINK-25                         JUNCTION-15                     JUNCTION-111                         57.0000       8.0000     140.0000       0.0000 
 LINK-26                         JUNCTION-112                    JUNCTION-14                          69.0000       8.0000     140.0000       0.0000 
 LINK-27                         JUNCTION-14                     JUNCTION-16                         928.0000       8.0000     140.0000       0.0000 
 LINK-28                         JUNCTION-17                     JUNCTION-18                        1382.0000      16.0003     138.0000       0.0000 
 LINK-29                         JUNCTION-18                     JUNCTION-116                        731.0000      16.0002     138.0000       0.0000 
 LINK-30                         JUNCTION-0                      JUNCTION-4                         1570.0000       7.9998     139.0000       0.0000 
 LINK-31                         JUNCTION-29                     JUNCTION-28                        1402.0000      24.0005     138.0000       0.0000 
 LINK-32                         JUNCTION-45                     JUNCTION-46                        1811.0000       7.9998     140.0000       0.0000 
 LINK-33                         JUNCTION-23                     JUNCTION-124                       1845.0000      12.0000     140.0000       0.0000 
 LINK-34                         JUNCTION-122                    JUNCTION-123                       2433.0000      12.0000     140.0000       0.0000 
 LINK-35                         JUNCTION-34                     JUNCTION-30                       10260.2841      24.0010     138.0000       0.0000 
 LINK-36                         JUNCTION-41                     JUNCTION-39                        1066.0000       7.9999     138.0000       0.0000 
 LINK-37                         JUNCTION-2                      JUNCTION-3                         1066.0000       7.9998     139.0000       0.0000 
 LINK-38                         JUNCTION-11                     JUNCTION-10                        1000.0000       7.9998     138.0000       0.0000 
 LINK-39                         JUNCTION-117                    JUNCTION-17                        1537.0000      16.0001     138.0000       0.0000 
 LINK-40                         JUNCTION-20                     JUNCTION-21                        2125.0000      20.0006     138.0000       0.0000 
 LINK-41                         JUNCTION-20                     JUNCTION-115                       3227.0000      16.0003     138.0000       0.0000 
 LINK-42                         JUNCTION-19                     JUNCTION-125                       2125.0000      20.0002     138.0000       0.0000 
 LINK-43                         JUNCTION-19                     JUNCTION-20                         942.0000      20.0000     138.0000       0.0000 
 LINK-44                         JUNCTION-21                     JUNCTION-22                        1257.0000      20.0004     138.0000       0.0000 
 LINK-45                         JUNCTION-22                     JUNCTION-23                        1101.0000      24.0007     138.0000       0.0000 
 LINK-46                         JUNCTION-23                     JUNCTION-30                        1175.0000      24.0007     138.0000       0.0000 
 LINK-47                         JUNCTION-22                     JUNCTION-24                         292.0000      24.0000     138.0000       0.0000 
 LINK-48                         JUNCTION-24                     JUNCTION-25                         178.0000      24.0000     138.0000       0.0000 
 LINK-49                         JUNCTION-25                     JUNCTION-26                         336.0000      24.0000     138.0000       0.0000 
 LINK-50                         JUNCTION-26                     JUNCTION-27                          76.0000      24.0000     138.0000       0.0000 
 LINK-51                         JUNCTION-27                     JUNCTION-28                         144.0000      24.0000     138.0000       0.0000 
 LINK-52                         JUNCTION-30                     JUNCTION-31                        1146.0000      12.0000     138.0000       0.0000 
 LINK-53                         JUNCTION-31                     JUNCTION-32                        1699.0000      12.0000     138.0000       0.0000 
 LINK-54                         JUNCTION-32                     JUNCTION-33                         645.0000      12.0000     138.0000       0.0000 
 LINK-55                         JUNCTION-33                     JUNCTION-57                         754.0000       8.4139     138.0000       0.0000 
 LINK-56                         JUNCTION-19                     JUNCTION-35                        1113.0000       7.9999     140.0000       0.0000 
 LINK-57                         JUNCTION-35                     JUNCTION-36                         507.0000       8.0000     140.0000       0.0000 
 LINK-58                         JUNCTION-35                     JUNCTION-37                         246.0000       7.9999     140.0000       0.0000 
 LINK-59                         JUNCTION-37                     JUNCTION-20                         739.0000       7.9999     138.0000       0.0000 
 LINK-60                         JUNCTION-35                     JUNCTION-38                         552.0000       8.0000     140.0000       0.0000 
 LINK-61                         JUNCTION-37                     JUNCTION-39                         348.0000       8.0000     138.0000       0.0000 
 LINK-62                         JUNCTION-39                     JUNCTION-40                         998.0000       8.2969     139.0000       0.0000 
 LINK-63                         JUNCTION-40                     JUNCTION-41                         619.0000       8.0000     138.0000       0.0000 
 LINK-64                         JUNCTION-40                     JUNCTION-42                         538.0000       7.9999     138.0000       0.0000 
 LINK-65                         JUNCTION-42                     JUNCTION-41                         668.0000       8.0000     138.0000       0.0000 
 LINK-66                         JUNCTION-42                     JUNCTION-27                        2581.0000       8.0198     138.0000       0.0000 
 LINK-67                         JUNCTION-24                     JUNCTION-43                         544.0000       8.0000     140.0000       0.0000 
 LINK-68                         JUNCTION-43                     JUNCTION-25                         420.0000       8.0000     140.0000       0.0000 
 LINK-69                         JUNCTION-43                     JUNCTION-44                         373.0000       7.9999     140.0000       0.0000 
 LINK-70                         JUNCTION-44                     JUNCTION-26                         556.0000       8.0000     140.0000       0.0000 
 LINK-71                         JUNCTION-44                     JUNCTION-28                         752.0000       7.9999     140.0000       0.0000 
 LINK-72                         JUNCTION-29                     TANK-130                            242.0000      24.0000     138.0000       0.0000 
 LINK-73                         JUNCTION-21                     JUNCTION-47                          91.0000       8.0000     139.0000       0.0000 
 LINK-74                         JUNCTION-47                     JUNCTION-48                         805.0000       8.0000     139.0000       0.0000 
 LINK-75                         JUNCTION-48                     JUNCTION-49                         574.0000       8.0000     139.0000       0.0000 
 LINK-76                         JUNCTION-49                     JUNCTION-22                         158.0000       8.0000     139.0000       0.0000 
 LINK-77                         JUNCTION-49                     JUNCTION-50                         577.0000       7.9999     139.0000       0.0000 
 LINK-78                         JUNCTION-50                     JUNCTION-51                         388.0000       8.0000     139.0000       0.0000 
 LINK-79                         JUNCTION-51                     JUNCTION-48                         236.0000       8.0000     139.0000       0.0000 
 LINK-80                         JUNCTION-51                     JUNCTION-52                         393.0000       8.0000     139.0000       0.0000 
 LINK-81                         JUNCTION-52                     JUNCTION-47                         549.0000       7.9999     139.0000       0.0000 
 LINK-82                         JUNCTION-52                     JUNCTION-50                        1381.0000       7.9999     139.0000       0.0000 
 LINK-83                         JUNCTION-23                     JUNCTION-53                         919.0000       9.9999     139.0000       0.0000 
 LINK-84                         JUNCTION-53                     JUNCTION-54                         386.0000      10.0000     139.0000       0.0000 
 LINK-85                         JUNCTION-54                     JUNCTION-31                         229.0000      10.0000     139.0000       0.0000 
 LINK-86                         JUNCTION-53                     JUNCTION-56                         232.0000       8.0000     140.0000       0.0000 
 LINK-87                         JUNCTION-56                     JUNCTION-55                         390.0000       8.0000     140.0000       0.0000 
 LINK-88                         JUNCTION-55                     JUNCTION-54                         254.0000       8.0000     140.0000       0.0000 
 LINK-89                         JUNCTION-55                     JUNCTION-56                         873.0000       7.9999     140.0000       0.0000 
 LINK-90                         JUNCTION-32                     JUNCTION-57                         945.0000       7.9999     140.0000       0.0000 
 LINK-91                         JUNCTION-57                     JUNCTION-33                         230.0000       8.0000     140.0000       0.0000 
 LINK-92                         JUNCTION-31                     JUNCTION-58                        1155.0000      10.0000     139.0000       0.0000 
 LINK-93                         JUNCTION-58                     JUNCTION-59                         413.0000       8.0000     140.0000       0.0000 
 LINK-94                         JUNCTION-59                     JUNCTION-60                         943.0000       7.9999     140.0000       0.0000 
 LINK-95                         JUNCTION-60                     JUNCTION-59                         196.0000       8.0000     140.0000       0.0000 
 LINK-96                         JUNCTION-60                     JUNCTION-61                         133.0000       8.0000     140.0000       0.0000 
 LINK-97                         JUNCTION-61                     JUNCTION-62                         138.0000       8.0000     140.0000       0.0000 
 LINK-98                         JUNCTION-62                     JUNCTION-63                         187.0000       8.0000     140.0000       0.0000 
 LINK-99                         JUNCTION-63                     JUNCTION-64                         134.0000       8.0000     139.0000       0.0000 
 LINK-100                        JUNCTION-64                     JUNCTION-65                         300.0000       8.0000     139.0000       0.0000 
 LINK-101                        JUNCTION-65                     JUNCTION-66                          65.0000       8.0000     139.0000       0.0000 
 LINK-102                        JUNCTION-66                     JUNCTION-67                         420.0000       7.9999     139.0000       0.0000 
 LINK-103                        JUNCTION-67                     JUNCTION-61                         209.0000       8.0000     139.0000       0.0000 
 LINK-104                        JUNCTION-66                     JUNCTION-67                         398.0000       7.9999     139.0000       0.0000 
 LINK-105                        JUNCTION-68                     JUNCTION-58                         381.0000      10.0000     139.0000       0.0000 
 LINK-106                        JUNCTION-64                     JUNCTION-65                         872.0000       7.9999     140.0000       0.0000 
 LINK-107                        JUNCTION-65                     JUNCTION-68                         199.0000       8.0000     140.0000       0.0000 
 LINK-108                        JUNCTION-63                     JUNCTION-62                         713.0000       7.9999     140.0000       0.0000 
 LINK-109                        JUNCTION-68                     JUNCTION-69                        1095.0000      10.0000     139.0000       0.0000 
 LINK-110                        JUNCTION-69                     JUNCTION-70                         231.0000       8.0000     140.0000       0.0000 
 LINK-111                        JUNCTION-70                     JUNCTION-71                         695.0000       8.0000     140.0000       0.0000 
 LINK-112                        JUNCTION-70                     JUNCTION-72                         528.0000       8.0000     140.0000       0.0000 
 LINK-113                        JUNCTION-73                     JUNCTION-69                         938.0000      10.0000     139.0000       0.0000 
 LINK-114                        JUNCTION-72                     JUNCTION-74                         169.0000       8.0000     140.0000       0.0000 
 LINK-115                        JUNCTION-74                     JUNCTION-73                         127.0000       8.0000     140.0000       0.0000 
 LINK-116                        JUNCTION-72                     JUNCTION-75                         928.0000       7.9999     139.0000       0.0000 
 LINK-117                        JUNCTION-75                     JUNCTION-74                         336.0000       8.0000     139.0000       0.0000 
 LINK-118                        JUNCTION-75                     JUNCTION-76                         772.0000       8.0000     139.0000       0.0000 
 LINK-119                        JUNCTION-76                     JUNCTION-77                         417.0000       8.0000     139.0000       0.0000 
 LINK-120                        JUNCTION-77                     JUNCTION-73                         655.0000      10.0000     139.0000       0.0000 
 LINK-121                        JUNCTION-76                     JUNCTION-78                         167.0000       8.0000     139.0000       0.0000 
 LINK-122                        JUNCTION-78                     JUNCTION-79                         169.0000       8.0000     139.0000       0.0000 
 LINK-123                        JUNCTION-79                     JUNCTION-80                         195.0000      10.0000     139.0000       0.0000 
 LINK-124                        JUNCTION-80                     JUNCTION-81                         333.0000      10.0000     139.0000       0.0000 
 LINK-125                        JUNCTION-81                     JUNCTION-77                          60.0000      10.0000     139.0000       0.0000 
 LINK-126                        JUNCTION-78                     JUNCTION-71                         895.0000       8.0000     139.0000       0.0000 
 LINK-127                        JUNCTION-80                     JUNCTION-82                         372.0000       8.0000     139.0000       0.0000 
 LINK-128                        JUNCTION-82                     JUNCTION-83                         205.0000       8.0000     139.0000       0.0000 
 LINK-129                        JUNCTION-83                     JUNCTION-84                         430.0000       8.0000     139.0000       0.0000 
 LINK-130                        JUNCTION-84                     JUNCTION-81                         152.0000       8.0000     139.0000       0.0000 
 LINK-131                        JUNCTION-84                     JUNCTION-83                        1586.0000       7.9999     139.0000       0.0000 
 LINK-132                        JUNCTION-82                     JUNCTION-85                         174.0000       8.0000     139.0000       0.0000 
 LINK-133                        JUNCTION-85                     JUNCTION-86                         456.0000       8.0000     139.0000       0.0000 
 LINK-134                        JUNCTION-86                     JUNCTION-87                         341.0000       8.0000     139.0000       0.0000 
 LINK-135                        JUNCTION-87                     JUNCTION-85                         507.0000       8.0000     139.0000       0.0000 
 LINK-136                        JUNCTION-87                     JUNCTION-88                         195.0000       8.0000     139.0000       0.0000 
 LINK-137                        JUNCTION-88                     JUNCTION-79                         250.0000      10.0000     139.0000       0.0000 
 LINK-138                        JUNCTION-88                     JUNCTION-89                         191.0000      10.0000     139.0000       0.0000 
 LINK-139                        JUNCTION-89                     JUNCTION-86                         926.0000       7.9999     140.0000       0.0000 
 LINK-140                        JUNCTION-89                     JUNCTION-90                         464.0000      10.0000     139.0000       0.0000 
 LINK-141                        JUNCTION-90                     JUNCTION-91                         178.0000      10.0000     139.0000       0.0000 
 LINK-142                        JUNCTION-91                     JUNCTION-92                         167.0000      10.0000     139.0000       0.0000 
 LINK-143                        JUNCTION-92                     JUNCTION-33                         403.0000      10.0000     139.0000       0.0000 
 LINK-144                        JUNCTION-90                     JUNCTION-93                         143.0000       8.0000     139.0000       0.0000 
 LINK-145                        JUNCTION-93                     JUNCTION-94                         331.0000       8.0000     139.0000       0.0000 
 LINK-146                        JUNCTION-94                     JUNCTION-92                         157.0000       8.0000     139.0000       0.0000 
 LINK-147                        JUNCTION-93                     JUNCTION-94                        1805.0000       7.9999     139.0000       0.0000 
 LINK-148                        JUNCTION-92                     JUNCTION-95                         177.0000       8.0000     139.0000       0.0000 
 LINK-149                        JUNCTION-95                     JUNCTION-96                         332.0000       8.0000     139.0000       0.0000 
 LINK-150                        JUNCTION-96                     JUNCTION-95                        1432.0000       7.9999     139.0000       0.0000 
 LINK-151                        JUNCTION-91                     JUNCTION-97                         489.0000       8.0000     139.0000       0.0000 
 LINK-152                        JUNCTION-97                     JUNCTION-96                         122.0000       8.0000     139.0000       0.0000 
 LINK-153                        JUNCTION-97                     JUNCTION-98                         285.0000       8.0000     139.0000       0.0000 
 LINK-154                        JUNCTION-98                     JUNCTION-99                         597.0000       8.0000     139.0000       0.0000 
 LINK-155                        JUNCTION-99                     JUNCTION-100                        148.0000       8.0000     139.0000       0.0000 
 LINK-156                        JUNCTION-100                    JUNCTION-101                        812.0000       7.9999     139.0000       0.0000 
 LINK-157                        JUNCTION-101                    JUNCTION-98                         152.0000       8.0000     139.0000       0.0000 
 LINK-158                        JUNCTION-100                    JUNCTION-101                        620.0000       8.0000     139.0000       0.0000 
 LINK-159                        JUNCTION-98                     JUNCTION-99                         784.0000       7.9999     139.0000       0.0000 
 LINK-160                        JUNCTION-97                     JUNCTION-71                        1214.0000       8.0000     139.0000       0.0000 